T44/data_conversion/PT/PT_Tx_2040_Active/Transmission_Network_PT_2040_Active_Economy.m
function mpc = Transmission_Network_PT_2040_Active_Economy

%% MATPOWER Case Format : Version 2
mpc.version = '2';

%%-----  Power Flow Data  -----%%
%% system MVA base
mpc.baseMVA = 100;

%% bus data
%	bus_i	type	Pd	Qd	Gs	Bs	area	Vm	Va	baseKV	zone	Vmax	Vmin
mpc.bus = [
	1	2	0.000	0.000	0	0	1	1.0495	23.83	400	1	1.05	0.95	;
	2	2	0.000	0.000	0	0	1	1.0487	21.89	400	1	1.05	0.95	;
	3	2	0.000	0.000	0	0	1	1.0451	8.1	400	1	1.05	0.95	;
	4	2	0.000	0.000	0	0	1	1.0404	1.11	400	1	1.05	0.95	;
	5	2	0.000	0.000	0	0	1	1.0494	24.84	220	1	1.05	0.95	;
	6	2	0.000	0.000	0	0	1	1.0492	24.72	220	1	1.05	0.95	;
	7	2	0.000	0.000	0	0	1	1.037	-5.97	400	1	1.05	0.95	;
	305	2	0.000	0.000	0	0	1	1.0484	19.82	400	1	1.05	0.95	;
	8	1	0.000	0.000	0	0	1	1.0098	0.13	150	2	1.05	0.95	;
	9	1	0.000	0.000	0	0	1	1.0348	-6.97	150	2	1.05	0.95	;
	10	2	0.000	0.000	0	0	1	1.0405	-6	150	2	1.05	0.95	;
	11	1	5.308	-0.398	0	0	1	1.022	-8.45	150	2	1.05	0.95	;
	12	1	0.000	0.000	0	0	1	1.0254	-10.54	150	2	1.05	0.95	;
	13	1	7.962	2.787	0	0	1	1.032	-7.44	150	2	1.05	0.95	;
	14	2	0.000	0.000	0	0	1	1.0358	-6.76	150	2	1.05	0.95	;
	15	1	0.000	0.000	0	0	1	1.0431	-5.68	150	2	1.05	0.95	;
	16	1	0.000	0.000	0	0	1	1.0236	15.73	150	2	1.05	0.95	;
	17	1	0.000	0.000	0	0	1	1.0271	16.59	150	2	1.05	0.95	;
	18	1	9.290	-1.194	0	0	1	1.0307	17.32	150	2	1.05	0.95	;
	19	1	0.000	0.000	0	0	1	1.0207	-8.79	150	2	1.05	0.95	;
	20	1	0.000	0.000	0	0	1	1.0285	-7.87	150	2	1.05	0.95	;
	21	1	0.000	0.000	0	0	1	1.0285	16.17	150	2	1.05	0.95	;
	22	2	0.000	0.000	0	0	1	1.034	-8.04	150	2	1.05	0.95	;
	23	1	0.000	0.000	0	0	1	1.0163	-11.17	150	2	1.05	0.95	;
	24	2	0.000	0.000	0	0	1	1.0267	10.02	150	2	1.05	0.95	;
	25	1	0.000	0.000	0	0	1	1.0208	16.45	150	2	1.05	0.95	;
	26	1	5.308	0.133	0	0	1	1.0419	-5.94	150	2	1.05	0.95	;
	27	1	3.981	-0.265	0	0	1	1.0399	-6.39	150	2	1.05	0.95	;
	28	1	2.654	-0.265	0	0	1	1.0362	-8.06	150	2	1.05	0.95	;
	29	2	0.000	0.000	0	0	1	1.0314	-9.33	150	2	1.05	0.95	;
	30	2	0.000	0.000	0	0	1	1.0354	17.98	150	2	1.05	0.95	;
	31	1	0.000	0.000	0	0	1	1.0246	10.34	150	2	1.05	0.95	;
	32	1	0.000	0.000	0	0	1	1.0307	17.37	150	2	1.05	0.95	;
	33	1	0.000	0.000	0	0	1	1.0381	18.89	150	2	1.05	0.95	;
	34	2	0.000	0.000	0	-75	1	1.0377	-8.53	150	2	1.05	0.95	;
	36	1	0.000	0.000	0	0	1	1.0269	0.31	220	2	1.05	0.95	;
	37	1	0.000	0.000	0	0	1	1.0292	-4.39	220	2	1.05	0.95	;
	38	1	0.000	0.000	0	0	1	1.0248	11.31	220	2	1.05	0.95	;
	39	1	0.000	0.000	0	0	1	1.0334	5.39	220	2	1.05	0.95	;
	40	1	0.000	0.000	0	0	1	1.0482	22.2	220	2	1.05	0.95	;
	41	1	0.000	0.000	0	0	1	1.025	11.42	220	2	1.05	0.95	;
	42	1	0.000	0.000	0	0	1	1.0366	9.65	220	2	1.05	0.95	;
	43	1	0.000	0.000	0	0	1	1.0275	-4.8	220	2	1.05	0.95	;
	44	1	0.000	0.000	0	0	1	1.0266	10.3	220	2	1.05	0.95	;
	45	1	0.000	0.000	0	0	1	1.0305	-0.71	220	2	1.05	0.95	;
	46	1	0.000	0.000	0	0	1	1.0302	-2.78	220	2	1.05	0.95	;
	47	1	0.000	0.000	0	0	1	1.0352	13.3	220	2	1.05	0.95	;
	48	1	53.083	10.617	0	0	1	1.0295	8.71	220	2	1.05	0.95	;
	49	1	0.000	0.000	0	0	1	1.0216	11.05	220	2	1.05	0.95	;
	50	1	0.000	0.000	0	100	1	1.0299	-4.1	220	2	1.05	0.95	;
	51	1	0.000	0.000	0	0	1	1.0405	18.35	220	2	1.05	0.95	;
	52	1	0.000	0.000	0	0	1	1.0332	2.76	220	2	1.05	0.95	;
	53	1	0.000	0.000	0	0	1	1.0236	11.17	220	2	1.05	0.95	;
	54	1	0.000	0.000	0	0	1	1.0472	29.54	220	2	1.05	0.95	;
	55	1	0.000	0.000	0	0	1	1.0269	-4.94	220	2	1.05	0.95	;
	56	1	0.000	0.000	0	100	1	1.0276	-5.31	220	2	1.05	0.95	;
	57	1	0.000	0.000	0	0	1	1.026	11.77	220	2	1.05	0.95	;
	58	1	0.000	0.000	0	0	1	1.0264	-5.03	220	2	1.05	0.95	;
	59	1	0.000	0.000	0	0	1	1.029	-4.56	220	2	1.05	0.95	;
	60	1	0.000	0.000	0	0	1	1.0357	13.14	220	2	1.05	0.95	;
	61	2	0.000	0.000	0	0	1	1.0361	13.47	220	2	1.05	0.95	;
	62	1	0.000	0.000	0	0	1	1.0351	11.87	220	2	1.05	0.95	;
	63	1	0.000	0.000	0	0	1	1.0454	27.32	220	2	1.05	0.95	;
	64	2	0.000	0.000	0	0	1	1.0258	-2.16	220	2	1.05	0.95	;
	65	2	0.000	0.000	0	0	1	1.0412	13.29	220	2	1.05	0.95	;
	66	1	0.000	0.000	0	0	1	1.0369	13.76	220	2	1.05	0.95	;
	67	1	2.654	-0.265	0	0	1	1.0286	12.12	220	2	1.05	0.95	;
	68	1	0.000	0.000	0	0	1	1.0234	11.2	220	2	1.05	0.95	;
	69	1	0.000	0.000	0	0	1	1.0314	8.24	220	2	1.05	0.95	;
	71	1	0.000	0.000	0	0	1	1.0328	4.33	220	2	1.05	0.95	;
	72	1	0.000	0.000	0	-70	1	1.0273	11.11	220	2	1.05	0.95	;
	73	2	0.000	0.000	0	0	1	1.0313	22.3	220	2	1.05	0.95	;
	74	1	0.000	0.000	0	0	1	1.0291	-3.05	220	2	1.05	0.95	;
	75	1	0.000	0.000	0	0	1	1.0361	15.85	220	2	1.05	0.95	;
	76	1	0.000	0.000	0	0	1	1.0264	-4.97	220	2	1.05	0.95	;
	77	1	0.000	0.000	0	0	1	1.0356	25.32	220	2	1.05	0.95	;
	78	1	0.000	0.000	0	-70	1	1.0338	7.07	220	2	1.05	0.95	;
	79	1	0.000	0.000	0	0	1	1.0325	18.08	220	2	1.05	0.95	;
	80	1	0.000	0.000	0	0	1	1.0418	-2.85	400	2	1.05	0.95	;
	81	1	0.000	0.000	0	0	1	1.035	14.92	400	2	1.05	0.95	;
	82	1	0.000	0.000	0	0	1	1.0436	-1.18	400	2	1.05	0.95	;
	83	1	0.000	0.000	0	0	1	1.0451	5.95	400	2	1.05	0.95	;
	84	1	0.000	0.000	0	0	1	1.0417	-3.42	400	2	1.05	0.95	;
	85	1	0.000	0.000	0	-150	1	1.0419	3.25	400	2	1.05	0.95	;
	86	1	0.000	0.000	0	0	1	1.0421	-3.74	400	2	1.05	0.95	;
	87	1	0.000	0.000	0	0	1	1.0423	-4.08	400	2	1.05	0.95	;
	88	1	0.000	0.000	0	0	1	1.0406	17.37	400	2	1.05	0.95	;
	89	1	0.000	0.000	0	-150	1	1.0446	-1.33	400	2	1.05	0.95	;
	90	1	0.000	0.000	0	-150	1	1.0473	16.36	400	2	1.05	0.95	;
	91	1	0.000	0.000	0	0	1	1.0456	18.9	400	2	1.05	0.95	;
	92	1	0.000	0.000	0	-150	1	1.0385	16.16	400	2	1.05	0.95	;
	93	1	0.000	0.000	0	0	1	1.0381	15.62	400	2	1.05	0.95	;
	94	1	0.000	0.000	0	0	1	1.0381	15.69	400	2	1.05	0.95	;
	95	1	0.000	0.000	0	0	1	1.048	10.1	400	2	1.05	0.95	;
	96	1	0.000	0.000	0	0	1	1.0493	21.65	400	2	1.05	0.95	;
	97	2	0.000	0.000	0	0	1	1.0424	-3.31	400	2	1.05	0.95	;
	98	1	0.000	0.000	0	0	1	1.0483	7.99	400	2	1.05	0.95	;
	99	1	0.000	0.000	0	0	1	1.0495	7.12	400	2	1.05	0.95	;
	100	1	0.000	0.000	0	0	1	1.0476	-0.01	400	2	1.05	0.95	;
	101	1	0.000	0.000	0	-150	1	1.0425	11.75	400	2	1.05	0.95	;
	102	1	0.000	0.000	0	-150	1	1.0288	-5.93	400	2	1.05	0.95	;
	103	1	0.000	0.000	0	0	1	1.0471	13.99	400	2	1.05	0.95	;
	104	1	0.000	0.000	0	-150	1	1.0428	18.65	400	2	1.05	0.95	;
	105	1	0.000	0.000	0	0	1	1.0433	0.68	400	2	1.05	0.95	;
	106	1	0.000	0.000	0	0	1	1.0494	21.82	400	2	1.05	0.95	;
	107	2	0.000	0.000	0	0	1	1.0323	-5.94	400	2	1.05	0.95	;
	108	2	61.178	17.252	0	0	1	1.0295	14.34	130	2	1.05	0.95	;
	109	2	314.518	45.784	0	0	1	1.0283	-3.37	63	2	1.05	0.95	;
	110	2	246.041	13.934	0	0	1	1.0313	-8.24	63	2	1.05	0.95	;
	111	2	235.822	28.267	0	0	1	1.0288	7.11	63	2	1.05	0.95	;
	112	2	298.461	41.538	0	0	1	1.0324	-8.95	63	2	1.05	0.95	;
	113	2	162.567	23.357	0	0	1	1.0338	-9.17	63	2	1.05	0.95	;
	114	2	282.536	38.485	0	0	1	1.0413	1.12	63	2	1.05	0.95	;
	115	2	44.988	8.361	0	0	1	1.0244	22	63	2	1.05	0.95	;
	116	2	357.383	70.999	0	0	1	1.0208	9.27	63	2	1.05	0.95	;
	117	2	90.507	11.015	0	0	1	1.0193	-10.81	63	2	1.05	0.95	;
	118	2	130.850	33.177	0	0	1	1.0319	8.75	63	2	1.05	0.95	;
	119	2	375.962	65.160	0	0	1	1.0439	-6.54	63	2	1.05	0.95	;
	120	2	326.197	60.780	0	0	1	1.0355	6.6	63	2	1.05	0.95	;
	121	2	192.427	36.495	0	0	1	1.032	-13.12	63	2	1.05	0.95	;
	122	2	319.694	64.629	0	0	1	1.0396	1.12	63	2	1.05	0.95	;
	123	2	276.166	11.678	0	0	1	1.0365	-10.54	63	2	1.05	0.95	;
	124	2	197.072	51.623	0	0	1	1.0347	-2.36	63	2	1.05	0.95	;
	125	2	180.616	15.925	0	0	1	1.0292	-6.21	63	2	1.05	0.95	;
	126	2	147.704	19.508	0	0	1	1.0357	-6.89	63	2	1.05	0.95	;
	127	2	180.218	33.708	0	0	1	1.0338	10.7	63	2	1.05	0.95	;
	128	2	383.394	85.995	0	0	1	1.0377	13.86	63	2	1.05	0.95	;
	129	2	272.450	38.353	0	0	1	1.0369	6.1	63	2	1.05	0.95	;
	130	2	407.281	81.085	0	0	1	1.018	7.29	63	2	1.05	0.95	;
	131	2	226.267	36.760	0	0	1	1.0353	-4.02	63	2	1.05	0.95	;
	132	2	80.819	15.792	0	0	1	1.0155	4.3	63	2	1.05	0.95	;
	133	2	280.545	66.885	0	0	1	1.0342	14.43	63	2	1.05	0.95	;
	134	2	264.487	44.325	0	0	1	1.0235	8.71	63	2	1.05	0.95	;
	135	2	265.549	27.471	0	0	1	1.0347	-8.08	63	2	1.05	0.95	;
	136	2	345.307	40.874	0	0	1	1.0359	-10.61	63	2	1.05	0.95	;
	137	2	194.816	49.235	0	0	1	1.0328	12.01	63	2	1.05	0.95	;
	138	2	208.219	37.955	0	0	1	1.028	10.03	63	2	1.05	0.95	;
	139	2	255.463	28.798	0	0	1	1.0319	-8.92	63	2	1.05	0.95	;
	140	2	68.743	11.811	0	0	1	1.0196	-11.88	63	2	1.05	0.95	;
	141	2	144.519	12.209	0	0	1	1.0249	-11.31	63	2	1.05	0.95	;
	142	2	211.404	36.229	0	0	1	1.0378	11.45	63	2	1.05	0.95	;
	143	1	126.736	13.404	0	0	1	1.0229	-8.34	63	2	1.05	0.95	;
	144	2	103.512	11.015	0	0	1	1.0333	10.59	63	2	1.05	0.95	;
	145	2	269.398	53.216	0	0	1	1.0304	9.54	63	2	1.05	0.95	;
	146	2	25.215	3.849	0	0	1	1.0233	-8.72	63	2	1.05	0.95	;
	147	2	97.010	13.404	0	0	1	1.0256	-5.71	63	2	1.05	0.95	;
	148	1	0.000	0.000	0	0	1	1.0089	16.84	63	2	1.05	0.95	;
	149	2	250.155	43.130	0	0	1	1.0291	-15.3	63	2	1.05	0.95	;
	150	2	62.904	13.404	0	0	1	1.0198	10.52	63	2	1.05	0.95	;
	151	2	307.485	77.634	0	0	1	1.025	11.64	63	2	1.05	0.95	;
	152	2	106.034	25.613	0	0	1	1.0255	10.74	63	2	1.05	0.95	;
	153	2	16.058	4.114	0	0	1	1.0294	26.68	63	2	1.05	0.95	;
	154	2	128.860	13.005	0	0	1	1.0257	-5.27	63	2	1.05	0.95	;
	155	2	79.359	20.039	0	0	1	1.038	12.17	63	2	1.05	0.95	;
	156	2	43.528	8.759	0	0	1	1.0328	12.93	63	2	1.05	0.95	;
	157	2	179.156	28.798	0	0	1	1.0248	6.45	63	2	1.05	0.95	;
	158	2	129.656	24.286	0	0	1	1.0356	8.71	63	2	1.05	0.95	;
	159	2	140.538	23.357	0	0	1	1.0374	-12.56	63	2	1.05	0.95	;
	160	2	146.244	17.252	0	0	1	1.0424	11.61	63	2	1.05	0.95	;
	161	2	23.755	6.768	0	0	1	1.0276	3.89	63	2	1.05	0.95	;
	162	2	91.834	16.323	0	0	1	1.0244	8.87	63	2	1.05	0.95	;
	163	2	18.048	12.209	0	0	1	1.0259	18.69	63	2	1.05	0.95	;
	164	2	56.268	6.768	0	0	1	1.0268	-0.55	63	2	1.05	0.95	;
	165	2	69.539	17.119	0	0	1	1.0081	20.7	63	2	1.05	0.95	;
	166	2	179.156	24.816	0	0	1	1.0374	-7.32	63	2	1.05	0.95	;
	167	2	51.889	9.555	0	0	1	1.0087	15.49	63	2	1.05	0.95	;
	168	2	199.328	35.433	0	0	1	1.0348	-6.12	63	2	1.05	0.95	;
	169	2	26.011	15.527	0	0	1	1.0374	-9.09	63	2	1.05	0.95	;
	170	2	52.154	14.863	0	0	1	1.0309	5.84	63	2	1.05	0.95	;
	171	2	89.843	10.086	0	0	1	1.026	3.54	63	2	1.05	0.95	;
	172	2	54.808	10.086	0	0	1	1.0085	17.12	63	2	1.05	0.95	;
	173	2	0.000	0.000	0	0	1	1.0389	19.1	150	2	1.05	0.95	;
	174	2	0.000	0.000	0	0	1	1.0379	18.76	150	2	1.05	0.95	;
	175	2	0.000	0.000	0	0	1	1.0125	0.42	150	2	1.05	0.95	;
	176	2	0.000	0.000	0	0	1	1.0124	0.42	150	2	1.05	0.95	;
	177	2	0.000	0.000	0	0	1	1.0402	19.28	150	2	1.05	0.95	;
	178	2	0.000	0.000	0	0	1	1.0283	16.74	150	2	1.05	0.95	;
	179	2	0.000	0.000	0	0	1	1.0379	18.35	150	2	1.05	0.95	;
	180	1	0.000	0.000	0	0	1	1.0339	-7.15	150	2	1.05	0.95	;
	181	2	0.000	0.000	0	0	1	1.0321	11.07	150	2	1.05	0.95	;
	182	2	0.000	0.000	0	0	1	1.0383	18.96	150	2	1.05	0.95	;
	184	1	0.000	0.000	0	0	1	1.0348	17.78	150	2	1.05	0.95	;
	185	1	0.000	0.000	0	0	1	1.038	-6.58	150	2	1.05	0.95	;
	186	1	0.000	0.000	0	0	1	1.029	-7.94	150	2	1.05	0.95	;
	187	2	0.000	0.000	0	0	1	1.027	0.33	220	2	1.05	0.95	;
	188	2	0.000	0.000	0	0	1	1.0269	0.31	220	2	1.05	0.95	;
	189	2	0.000	0.000	0	0	1	1.0269	0.31	220	2	1.05	0.95	;
	190	1	0.000	0.000	0	0	1	1.0214	11.08	220	2	1.05	0.95	;
	191	2	0.000	0.000	0	0	1	1.049	30.81	220	2	1.05	0.95	;
	192	2	0.000	0.000	0	0	1	1.0442	27.88	220	2	1.05	0.95	;
	193	1	0.000	0.000	0	0	1	1.0235	11.17	220	2	1.05	0.95	;
	194	2	0.000	0.000	0	0	1	1.0476	21	220	2	1.05	0.95	;
	195	2	0.000	0.000	0	0	1	1.0394	6.87	220	2	1.05	0.95	;
	196	2	0.000	0.000	0	0	1	1.0487	22.28	220	2	1.05	0.95	;
	198	2	0.000	0.000	0	0	1	1.0489	23.31	220	2	1.05	0.95	;
	199	1	0.000	0.000	0	0	1	1.0331	2.71	220	2	1.05	0.95	;
	200	2	0.000	0.000	0	0	1	1.0472	29.55	220	2	1.05	0.95	;
	201	2	0.000	0.000	0	0	1	1.0472	29.55	220	2	1.05	0.95	;
	202	2	0.000	0.000	0	0	1	1.0472	29.55	220	2	1.05	0.95	;
	203	2	0.000	0.000	0	0	1	1.0473	29.58	220	2	1.05	0.95	;
...
];

%% generator data
%	bus	Pg	Qg	Qmax	Qmin	Vg	mBase	status	Pmax	Pmin	Pc1	Pc2	Qc1min	Qc1max	Qc2min	Qc2max	ramp_agc	ramp_10	ramp_30	ramp_q	apf
mpc.gen = [
	1	874.358	-92.240	9999.000	-9999.000	1.0495	100.00	1	9999.000	-9999.000	0	0	0	0	0	0	0	0	0	0	0	;
	2	104.070	-68.171	9999.000	-9999.000	1.0487	100.00	1	9999.000	-9999.000	0	0	0	0	0	0	0	0	0	0	0	;
	3	31.808	-71.143	9999.000	-9999.000	1.0451	100.00	1	9999.000	-9999.000	0	0	0	0	0	0	0	0	0	0	0	;
	4	48.862	-49.773	9999.000	-9999.000	1.0404	100.00	1	9999.000	-9999.000	0	0	0	0	0	0	0	0	0	0	0	;
	5	274.770	-40.606	9999.000	-9999.000	1.0494	100.00	1	9999.000	-9999.000	0	0	0	0	0	0	0	0	0	0	0	;
	6	176.887	-25.938	9999.000	-9999.000	1.0492	100.00	1	9999.000	-9999.000	0	0	0	0	0	0	0	0	0	0	0	;
	7	0.000	23.831	9999.000	-9999.000	1.0370	100.00	1	9999.000	-9999.000	0	0	0	0	0	0	0	0	0	0	0	;
	305	266.604	-6.142	9999.000	-9999.000	1.0484	100.00	1	9999.000	-9999.000	0	0	0	0	0	0	0	0	0	0	0	;
	10	0.000	0.000	90.304	-90.304	1.0405	243.15	0	225.761	0.000	0	0	0	0	0	0	0	0	0	0	0	;
	14	0.000	0.000	104.036	-104.036	1.0358	280.13	0	260.091	0.000	0	0	0	0	0	0	0	0	0	0	0	;
	22	0.000	0.000	65.486	-65.486	1.0340	176.33	0	163.715	0.000	0	0	0	0	0	0	0	0	0	0	0	;
	22	0.000	0.000	88.214	-88.214	1.0340	237.52	0	220.536	0.000	0	0	0	0	0	0	0	0	0	0	0	;
	24	0.000	0.000	104.036	-104.036	1.0267	280.13	0	260.091	0.000	0	0	0	0	0	0	0	0	0	0	0	;
	29	0.000	0.000	67.728	-67.728	1.0314	182.36	0	169.321	0.000	0	0	0	0	0	0	0	0	0	0	0	;
	30	31.000	2.679	15.500	-12.400	1.0354	34.66	1	31.000	15.500	0	0	0	0	0	0	0	0	0	0	0	;
	30	0.000	0.000	15.500	-12.400	1.0354	34.66	0	31.000	15.500	0	0	0	0	0	0	0	0	0	0	0	;
	34	0.000	0.000	112.880	-112.880	1.0377	303.94	0	282.201	0.000	0	0	0	0	0	0	0	0	0	0	0	;
	61	60.000	5.386	30.000	-24.000	1.0361	67.08	1	60.000	30.000	0	0	0	0	0	0	0	0	0	0	0	;
	61	60.000	5.386	30.000	-24.000	1.0361	67.08	1	60.000	30.000	0	0	0	0	0	0	0	0	0	0	0	;
	61	60.000	5.386	30.000	-24.000	1.0361	67.08	1	60.000	30.000	0	0	0	0	0	0	0	0	0	0	0	;
	64	0.000	0.000	72.045	-72.045	1.0258	193.99	0	180.113	0.000	0	0	0	0	0	0	0	0	0	0	0	;
	65	3.180	30.389	57.161	-57.161	1.0412	153.91	1	142.903	0.000	0	0	0	0	0	0	0	0	0	0	0	;
	73	4.276	12.885	76.847	-76.847	1.0313	206.92	1	192.119	0.000	0	0	0	0	0	0	0	0	0	0	0	;
	97	0.000	0.000	104.036	-104.036	1.0424	280.13	0	260.091	0.000	0	0	0	0	0	0	0	0	0	0	0	;
	107	0.000	0.000	180.609	-180.609	1.0323	486.30	0	451.522	0.000	0	0	0	0	0	0	0	0	0	0	0	;
	108	3.393	34.431	60.978	-60.978	1.0295	164.19	1	152.445	0.000	0	0	0	0	0	0	0	0	0	0	0	;
	108	10.794	5.243	9.285	-9.285	1.0295	25.00	1	23.212	0.000	0	0	0	0	0	0	0	0	0	0	0	;
	109	15.500	3.560	7.750	-6.200	1.0283	17.33	1	15.500	7.750	0	0	0	0	0	0	0	0	0	0	0	;
	109	30.000	6.890	15.000	-12.000	1.0283	33.54	1	30.000	15.000	0	0	0	0	0	0	0	0	0	0	0	;
	109	45.893	10.634	24.903	-24.903	1.0283	67.05	1	62.258	0.000	0	0	0	0	0	0	0	0	0	0	0	;
	109	3.940	30.241	70.820	-70.820	1.0283	190.69	1	177.049	0.000	0	0	0	0	0	0	0	0	0	0	0	;
	109	6.779	0.000	0.000	0.000	1.0283	15.70	1	15.700	0.000	0	0	0	0	0	0	0	0	0	0	0	;
	109	0.000	0.000	11.555	-11.555	1.0283	31.11	0	28.888	0.000	0	0	0	0	0	0	0	0	0	0	0	;
	110	14.409	-0.207	7.819	-7.819	1.0313	21.05	1	19.548	0.000	0	0	0	0	0	0	0	0	0	0	0	;
	110	0.000	0.000	9.310	-9.310	1.0313	25.07	0	23.274	0.000	0	0	0	0	0	0	0	0	0	0	0	;
	111	6.402	0.819	3.474	-3.474	1.0288	9.35	1	8.685	0.000	0	0	0	0	0	0	0	0	0	0	0	;
	112	145.133	37.661	78.755	-78.755	1.0324	212.05	1	196.887	0.000	0	0	0	0	0	0	0	0	0	0	0	;
	112	0.000	0.000	25.332	-25.332	1.0324	68.21	0	63.329	0.000	0	0	0	0	0	0	0	0	0	0	0	;
	113	2.911	0.139	1.580	-1.580	1.0338	4.25	1	3.949	0.000	0	0	0	0	0	0	0	0	0	0	0	;
	113	2.893	0.000	0.000	0.000	1.0338	6.70	1	6.700	0.000	0	0	0	0	0	0	0	0	0	0	0	;
	113	0.000	0.000	64.776	-64.776	1.0338	174.41	0	161.939	0.000	0	0	0	0	0	0	0	0	0	0	0	;
	114	21.596	5.951	11.719	-11.719	1.0413	31.55	1	29.297	0.000	0	0	0	0	0	0	0	0	0	0	0	;
	114	5.721	52.219	102.834	-102.834	1.0413	276.89	1	257.084	0.000	0	0	0	0	0	0	0	0	0	0	0	;
	114	5.829	0.000	0.000	0.000	1.0413	13.50	1	13.500	0.000	0	0	0	0	0	0	0	0	0	0	0	;
	114	11.658	5.092	10.028	-10.028	1.0413	27.00	1	25.069	0.000	0	0	0	0	0	0	0	0	0	0	0	;
	114	0.000	0.000	11.801	-11.801	1.0413	31.78	0	29.503	0.000	0	0	0	0	0	0	0	0	0	0	0	;
	115	16.000	1.953	9.000	-7.200	1.0244	20.12	1	18.000	-18.000	0	0	0	0	0	0	0	0	0	0	0	;
	115	15.000	1.953	9.000	-7.200	1.0244	20.12	1	18.000	-18.000	0	0	0	0	0	0	0	0	0	0	0	;
	115	3.185	0.273	1.728	-1.728	1.0244	4.65	1	4.321	0.000	0	0	0	0	0	0	0	0	0	0	0	;
	115	3.265	9.255	58.675	-58.675	1.0244	157.99	1	146.688	0.000	0	0	0	0	0	0	0	0	0	0	0	;
	115	4.404	0.000	0.000	0.000	1.0244	10.20	1	10.200	0.000	0	0	0	0	0	0	0	0	0	0	0	;
	116	49.452	17.034	26.834	-26.834	1.0208	72.25	1	67.086	0.000	0	0	0	0	0	0	0	0	0	0	0	;
	116	0.777	0.000	0.000	0.000	1.0208	1.80	1	1.800	0.000	0	0	0	0	0	0	0	0	0	0	0	;
	116	0.000	0.000	10.509	-10.509	1.0208	28.30	0	26.274	0.000	0	0	0	0	0	0	0	0	0	0	0	;
	117	2.501	0.203	1.357	-1.357	1.0193	3.65	1	3.392	0.000	0	0	0	0	0	0	0	0	0	0	0	;
	117	0.000	0.000	19.181	-19.181	1.0193	51.65	0	47.953	0.000	0	0	0	0	0	0	0	0	0	0	0	;
	118	28.988	7.487	15.730	-15.730	1.0319	42.35	1	39.324	0.000	0	0	0	0	0	0	0	0	0	0	0	;
	118	3.120	26.691	56.076	-56.076	1.0319	150.99	1	140.189	0.000	0	0	0	0	0	0	0	0	0	0	0	;
	118	10.578	0.000	0.000	0.000	1.0319	24.50	1	24.500	0.000	0	0	0	0	0	0	0	0	0	0	0	;
	118	34.325	14.053	29.526	-29.526	1.0319	79.50	1	73.814	0.000	0	0	0	0	0	0	0	0	0	0	0	;
	119	6.060	1.925	3.288	-3.288	1.0439	8.85	1	8.220	0.000	0	0	0	0	0	0	0	0	0	0	0	;
	119	3.845	40.459	69.111	-69.111	1.0439	186.09	1	172.778	0.000	0	0	0	0	0	0	0	0	0	0	0	;
	119	0.000	0.000	10.509	-10.509	1.0439	28.30	0	26.274	0.000	0	0	0	0	0	0	0	0	0	0	0	;
	120	21.322	7.674	11.570	-11.570	1.0355	31.15	1	28.925	0.000	0	0	0	0	0	0	0	0	0	0	0	;
	120	4.000	47.684	71.897	-71.897	1.0355	193.59	1	179.742	0.000	0	0	0	0	0	0	0	0	0	0	0	;
	120	8.635	0.000	0.000	0.000	1.0355	20.00	1	20.000	0.000	0	0	0	0	0	0	0	0	0	0	0	;
	120	0.000	0.000	11.986	-11.986	1.0355	32.27	0	29.964	0.000	0	0	0	0	0	0	0	0	0	0	0	;
	121	3.227	40.052	58.007	-58.007	1.0320	156.19	1	145.017	0.000	0	0	0	0	0	0	0	0	0	0	0	;
	121	0.432	0.000	0.000	0.000	1.0320	1.00	1	1.000	0.000	0	0	0	0	0	0	0	0	0	0	0	;
	121	0.000	0.000	28.410	-28.410	1.0320	76.50	0	71.026	0.000	0	0	0	0	0	0	0	0	0	0	0	;
	122	17.079	6.128	9.268	-9.268	1.0396	24.95	1	23.169	0.000	0	0	0	0	0	0	0	0	0	0	0	;
	122	6.058	72.001	108.887	-108.887	1.0396	293.19	1	272.218	0.000	0	0	0	0	0	0	0	0	0	0	0	;
	122	0.000	0.000	9.341	-9.341	1.0396	25.15	0	23.352	0.000	0	0	0	0	0	0	0	0	0	0	0	;
	123	32.889	6.998	17.847	-17.847	1.0365	48.05	1	44.617	0.000	0	0	0	0	0	0	0	0	0	0	0	;
	123	0.000	0.000	20.965	-20.965	1.0365	56.45	0	52.412	0.000	0	0	0	0	0	0	0	0	0	0	0	;
	124	2.569	0.970	1.394	-1.394	1.0347	3.75	1	3.485	0.000	0	0	0	0	0	0	0	0	0	0	0	;
	124	7.606	95.063	136.704	-136.704	1.0347	368.09	1	341.761	0.000	0	0	0	0	0	0	0	0	0	0	0	;
	124	0.561	0.000	0.000	0.000	1.0347	1.30	1	1.300	0.000	0	0	0	0	0	0	0	0	0	0	0	;
	125	3.446	20.861	61.944	-61.944	1.0292	166.79	1	154.859	0.000	0	0	0	0	0	0	0	0	0	0	0	;
	126	27.071	0.911	14.690	-14.690	1.0357	39.55	1	36.725	0.000	0	0	0	0	0	0	0	0	0	0	0	;
	126	3.513	3.917	63.132	-63.132	1.0357	169.99	1	157.830	0.000	0	0	0	0	0	0	0	0	0	0	0	;
	126	0.000	0.000	26.422	-26.422	1.0357	71.14	0	66.054	0.000	0	0	0	0	0	0	0	0	0	0	0	;
	127	3.117	0.516	1.691	-1.691	1.0338	4.55	1	4.228	0.000	0	0	0	0	0	0	0	0	0	0	0	;
	127	10.094	55.342	181.420	-181.420	1.0338	488.49	1	453.550	0.000	0	0	0	0	0	0	0	0	0	0	0	;
	127	19.818	0.000	0.000	0.000	1.0338	45.90	1	45.900	0.000	0	0	0	0	0	0	0	0	0	0	0	;
	127	13.277	3.484	11.420	-11.420	1.0338	30.75	1	28.551	0.000	0	0	0	0	0	0	0	0	0	0	0	;
	127	0.000	0.000	9.310	-9.310	1.0338	25.07	0	23.274	0.000	0	0	0	0	0	0	0	0	0	0	0	;
	128	113.103	40.730	61.374	-61.374	1.0377	165.25	1	153.434	0.000	0	0	0	0	0	0	0	0	0	0	0	;
	128	3.139	37.436	56.410	-56.410	1.0377	151.89	1	141.025	0.000	0	0	0	0	0	0	0	0	0	0	0	;
	128	19.645	0.000	0.000	0.000	1.0377	45.50	1	45.500	0.000	0	0	0	0	0	0	0	0	0	0	0	;
	128	0.000	0.000	10.878	-10.878	1.0377	29.29	0	27.196	0.000	0	0	0	0	0	0	0	0	0	0	0	;
	129	59.000	21.294	37.500	-30.000	1.0369	83.85	1	75.000	37.500	0	0	0	0	0	0	0	0	0	0	0	;
	129	51.300	15.244	27.837	-27.837	1.0369	74.95	1	69.593	0.000	0	0	0	0	0	0	0	0	0	0	0	;
	129	3.804	37.438	68.369	-68.369	1.0369	184.09	1	170.922	0.000	0	0	0	0	0	0	0	0	0	0	0	;
	129	7.901	0.000	0.000	0.000	1.0369	18.30	1	18.300	0.000	0	0	0	0	0	0	0	0	0	0	0	;
	130	8.387	2.118	4.551	-4.551	1.0180	12.25	1	11.377	0.000	0	0	0	0	0	0	0	0	0	0	0	;
	131	60.265	9.424	32.702	-32.702	1.0353	88.05	1	81.756	0.000	0	0	0	0	0	0	0	0	0	0	0	;
	131	4.308	22.314	77.431	-77.431	1.0353	208.49	1	193.576	0.000	0	0	0	0	0	0	0	0	0	0	0	;
	131	0.000	0.000	20.534	-20.534	1.0353	55.29	0	51.336	0.000	0	0	0	0	0	0	0	0	0	0	0	;
	132	25.223	4.101	13.687	-13.687	1.0155	36.85	1	34.218	0.000	0	0	0	0	0	0	0	0	0	0	0	;
	132	3.537	19.049	63.578	-63.578	1.0155	171.19	1	158.944	0.000	0	0	0	0	0	0	0	0	0	0	0	;
	132	0.000	0.000	9.310	-9.310	1.0155	25.07	0	23.274	0.000	0	0	0	0	0	0	0	0	0	0	0	;
	133	96.334	29.662	52.275	-52.275	1.0342	140.75	1	130.686	0.000	0	0	0	0	0	0	0	0	0	0	0	;
	133	5.690	58.034	102.277	-102.277	1.0342	275.39	1	255.691	0.000	0	0	0	0	0	0	0	0	0	0	0	;
	133	7.210	0.000	0.000	0.000	1.0342	16.70	1	16.700	0.000	0	0	0	0	0	0	0	0	0	0	0	;
	134	129.529	49.476	70.287	-70.287	1.0235	189.25	1	175.718	0.000	0	0	0	0	0	0	0	0	0	0	0	;
	134	0.000	0.000	10.017	-10.017	1.0235	26.97	0	25.044	0.000	0	0	0	0	0	0	0	0	0	0	0	;
	135	1.769	13.041	31.792	-31.792	1.0347	85.60	1	79.481	0.000	0	0	0	0	0	0	0	0	0	0	0	;
	136	6.196	0.167	3.362	-3.362	1.0359	9.05	1	8.406	0.000	0	0	0	0	0	0	0	0	0	0	0	;
	136	0.000	0.000	11.740	-11.740	1.0359	31.61	0	29.349	0.000	0	0	0	0	0	0	0	0	0	0	0	;
	137	21.801	7.803	11.830	-11.830	1.0328	31.85	1	29.575	0.000	0	0	0	0	0	0	0	0	0	0	0	;
	137	3.986	47.250	71.637	-71.637	1.0328	192.89	1	179.092	0.000	0	0	0	0	0	0	0	0	0	0	0	;
	137	2.116	0.000	0.000	0.000	1.0328	4.90	1	4.900	0.000	0	0	0	0	0	0	0	0	0	0	0	;
	138	6.196	1.055	3.362	-3.362	1.0280	9.05	1	8.406	0.000	0	0	0	0	0	0	0	0	0	0	0	;
	138	2.850	0.000	0.000	0.000	1.0280	6.60	1	6.600	0.000	0	0	0	0	0	0	0	0	0	0	0	;
	138	0.000	0.000	12.847	-12.847	1.0280	34.59	0	32.116	0.000	0	0	0	0	0	0	0	0	0	0	0	;
	139	8.455	0.423	4.588	-4.588	1.0319	12.35	1	11.470	0.000	0	0	0	0	0	0	0	0	0	0	0	;
	139	0.000	0.000	9.310	-9.310	1.0319	25.07	0	23.274	0.000	0	0	0	0	0	0	0	0	0	0	0	;
	140	2.979	0.000	0.000	0.000	1.0196	6.90	1	6.900	0.000	0	0	0	0	0	0	0	0	0	0	0	;
	140	0.000	0.000	70.659	-70.659	1.0196	190.25	0	176.647	0.000	0	0	0	0	0	0	0	0	0	0	0	;
	141	10.851	1.600	5.888	-5.888	1.0249	15.85	1	14.720	0.000	0	0	0	0	0	0	0	0	0	0	0	;
	141	0.000	0.000	9.310	-9.310	1.0249	25.07	0	23.274	0.000	0	0	0	0	0	0	0	0	0	0	0	;
	142	15.299	4.512	8.302	-8.302	1.0378	22.35	1	20.755	0.000	0	0	0	0	0	0	0	0	0	0	0	;
	142	5.409	52.850	97.226	-97.226	1.0378	261.79	1	243.064	0.000	0	0	0	0	0	0	0	0	0	0	0	;
	142	11.917	0.000	0.000	0.000	1.0378	27.60	1	27.600	0.000	0	0	0	0	0	0	0	0	0	0	0	;
	142	0.000	0.000	9.341	-9.341	1.0378	25.15	0	23.352	0.000	0	0	0	0	0	0	0	0	0	0	0	;
	144	3.185	0.491	1.728	-1.728	1.0333	4.65	1	4.321	0.000	0	0	0	0	0	0	0	0	0	0	0	;
	144	5.368	27.419	96.483	-96.483	1.0333	259.79	1	241.207	0.000	0	0	0	0	0	0	0	0	0	0	0	;
	145	278.458	58.890	151.102	-151.102	1.0304	406.85	1	377.754	0.000	0	0	0	0	0	0	0	0	0	0	0	;
	145	3.265	22.868	58.675	-58.675	1.0304	157.99	1	146.688	0.000	0	0	0	0	0	0	0	0	0	0	0	;
	146	0.000	0.000	20.171	-20.171	1.0233	54.31	0	50.428	0.000	0	0	0	0	0	0	0	0	0	0	0	;
	147	5.854	0.064	3.177	-3.177	1.0256	8.55	1	7.942	0.000	0	0	0	0	0	0	0	0	0	0	0	;
	147	0.000	0.000	11.740	-11.740	1.0256	31.61	0	29.349	0.000	0	0	0	0	0	0	0	0	0	0	0	;
	149	3.253	0.544	1.765	-1.765	1.0291	4.75	1	4.414	0.000	0	0	0	0	0	0	0	0	0	0	0	;
	149	0.000	0.000	18.467	-18.467	1.0291	49.72	0	46.167	0.000	0	0	0	0	0	0	0	0	0	0	0	;
	150	0.000	0.000	4.000	-3.200	1.0198	8.94	0	8.000	4.000	0	0	0	0	0	0	0	0	0	0	0	;
	150	8.800	0.530	4.400	-3.520	1.0198	9.84	1	8.800	4.400	0	0	0	0	0	0	0	0	0	0	0	;
	150	8.800	0.530	4.400	-3.520	1.0198	9.84	1	8.800	4.400	0	0	0	0	0	0	0	0	0	0	0	;
	150	8.800	0.530	4.400	-3.520	1.0198	9.84	1	8.800	4.400	0	0	0	0	0	0	0	0	0	0	0	;
	150	8.800	0.530	4.400	-3.520	1.0198	9.84	1	8.800	4.400	0	0	0	0	0	0	0	0	0	0	0	;
	150	0.000	0.000	4.000	-3.200	1.0198	8.94	0	8.000	4.000	0	0	0	0	0	0	0	0	0	0	0	;
	150	0.000	0.000	12.500	-10.000	1.0198	27.95	0	25.000	12.500	0	0	0	0	0	0	0	0	0	0	0	;
	150	38.501	1.057	20.892	-20.892	1.0198	56.25	1	52.230	0.000	0	0	0	0	0	0	0	0	0	0	0	;
	150	4.360	3.964	78.359	-78.359	1.0198	210.99	1	195.898	0.000	0	0	0	0	0	0	0	0	0	0	0	;
	150	2.418	0.000	0.000	0.000	1.0198	5.60	1	5.600	0.000	0	0	0	0	0	0	0	0	0	0	0	;
	150	0.000	0.000	24.040	-24.040	1.0198	64.73	0	60.100	0.000	0	0	0	0	0	0	0	0	0	0	0	;
	151	20.980	6.792	11.384	-11.384	1.0250	30.65	1	28.461	0.000	0	0	0	0	0	0	0	0	0	0	0	;
	151	4.836	0.000	0.000	0.000	1.0250	11.20	1	11.200	0.000	0	0	0	0	0	0	0	0	0	0	0	;
	151	0.000	0.000	9.310	-9.310	1.0250	25.07	0	23.274	0.000	0	0	0	0	0	0	0	0	0	0	0	;
	152	19.953	1.251	10.827	-10.827	1.0255	29.15	1	27.068	0.000	0	0	0	0	0	0	0	0	0	0	0	;
	152	5.097	10.588	91.618	-91.618	1.0255	246.69	1	229.044	0.000	0	0	0	0	0	0	0	0	0	0	0	;
	152	11.571	0.000	0.000	0.000	1.0255	26.80	1	26.800	0.000	0	0	0	0	0	0	0	0	0	0	0	;
	152	14.248	1.416	12.256	-12.256	1.0255	33.00	1	30.640	0.000	0	0	0	0	0	0	0	0	0	0	0	;
	152	0.000	0.000	9.341	-9.341	1.0255	25.15	0	23.352	0.000	0	0	0	0	0	0	0	0	0	0	0	;
	153	3.182	3.468	57.190	-57.190	1.0294	153.99	1	142.974	0.000	0	0	0	0	0	0	0	0	0	0	0	;
	153	0.000	0.000	9.341	-9.341	1.0294	25.15	0	23.352	0.000	0	0	0	0	0	0	0	0	0	0	0	;
	154	5.307	0.141	2.880	-2.880	1.0257	7.75	1	7.199	0.000	0	0	0	0	0	0	0	0	0	0	0	;
	154	0.000	0.000	10.325	-10.325	1.0257	27.80	0	25.812	0.000	0	0	0	0	0	0	0	0	0	0	0	;
	155	0.000	0.000	20.000	-16.000	1.0380	44.72	0	40.000	20.000	0	0	0	0	0	0	0	0	0	0	0	;
	155	2.706	0.608	1.468	-1.468	1.0380	3.95	1	3.671	0.000	0	0	0	0	0	0	0	0	0	0	0	;
	155	8.426	62.773	151.449	-151.449	1.0380	407.79	1	378.622	0.000	0	0	0	0	0	0	0	0	0	0	0	;
	155	8.722	0.000	0.000	0.000	1.0380	20.20	1	20.200	0.000	0	0	0	0	0	0	0	0	0	0	0	;
	156	7.862	32.682	141.310	-141.310	1.0328	380.49	1	353.274	0.000	0	0	0	0	0	0	0	0	0	0	0	;
	156	4.188	0.000	0.000	0.000	1.0328	9.70	1	9.700	0.000	0	0	0	0	0	0	0	0	0	0	0	;
	157	14.683	3.874	7.968	-7.968	1.0248	21.45	1	19.919	0.000	0	0	0	0	0	0	0	0	0	0	0	;
	158	4.417	1.544	2.397	-2.397	1.0356	6.45	1	5.992	0.000	0	0	0	0	0	0	0	0	0	0	0	;
	158	4.387	50.773	78.842	-78.842	1.0356	212.29	1	197.105	0.000	0	0	0	0	0	0	0	0	0	0	0	;
	158	0.000	0.000	9.310	-9.310	1.0356	25.07	0	23.274	0.000	0	0	0	0	0	0	0	0	0	0	0	;
	159	7.360	2.619	3.994	-3.994	1.0374	10.75	1	9.985	0.000	0	0	0	0	0	0	0	0	0	0	0	;
	159	6.556	77.278	117.838	-117.838	1.0374	317.29	1	294.595	0.000	0	0	0	0	0	0	0	0	0	0	0	;
	159	1.166	0.000	0.000	0.000	1.0374	2.70	1	2.700	0.000	0	0	0	0	0	0	0	0	0	0	0	;
	159	0.000	0.000	6.250	-6.250	1.0374	16.83	0	15.626	0.000	0	0	0	0	0	0	0	0	0	0	0	;
	160	20.501	4.692	11.124	-11.124	1.0424	29.95	1	27.811	0.000	0	0	0	0	0	0	0	0	0	0	0	;
	160	7.077	53.655	127.197	-127.197	1.0424	342.49	1	317.992	0.000	0	0	0	0	0	0	0	0	0	0	0	;
	160	23.876	0.000	0.000	0.000	1.0424	55.30	1	55.300	0.000	0	0	0	0	0	0	0	0	0	0	0	;
	161	7.713	27.019	138.636	-138.636	1.0276	373.29	1	346.589	0.000	0	0	0	0	0	0	0	0	0	0	0	;
	162	42.676	7.885	23.158	-23.158	1.0244	62.35	1	57.894	0.000	0	0	0	0	0	0	0	0	0	0	0	;
	162	3.967	24.278	71.303	-71.303	1.0244	191.99	1	178.256	0.000	0	0	0	0	0	0	0	0	0	0	0	;
	162	1.382	0.000	0.000	0.000	1.0244	3.20	1	3.200	0.000	0	0	0	0	0	0	0	0	0	0	0	;
	163	7.552	13.802	135.739	-135.739	1.0259	365.49	1	339.347	0.000	0	0	0	0	0	0	0	0	0	0	0	;
	163	3.109	0.000	0.000	0.000	1.0259	7.20	1	7.200	0.000	0	0	0	0	0	0	0	0	0	0	0	;
	164	5.829	0.000	0.000	0.000	1.0268	13.50	1	13.500	0.000	0	0	0	0	0	0	0	0	0	0	0	;
	164	0.000	0.000	65.344	-65.344	1.0268	175.94	0	163.360	0.000	0	0	0	0	0	0	0	0	0	0	0	;
	165	4.635	9.461	83.298	-83.298	1.0081	224.29	1	208.246	0.000	0	0	0	0	0	0	0	0	0	0	0	;
	165	9.110	0.000	0.000	0.000	1.0081	21.10	1	21.100	0.000	0	0	0	0	0	0	0	0	0	0	0	;
	166	15.573	3.295	8.450	-8.450	1.0374	22.75	1	21.126	0.000	0	0	0	0	0	0	0	0	0	0	0	;
	166	7.934	55.609	142.610	-142.610	1.0374	383.99	1	356.524	0.000	0	0	0	0	0	0	0	0	0	0	0	;
	166	0.000	0.000	9.402	-9.402	1.0374	25.32	0	23.506	0.000	0	0	0	0	0	0	0	0	0	0	0	;
	167	3.117	-0.044	1.691	-1.691	1.0087	4.55	1	4.228	0.000	0	0	0	0	0	0	0	0	0	0	0	;
	167	5.498	-2.589	98.823	-98.823	1.0087	266.09	1	247.057	0.000	0	0	0	0	0	0	0	0	0	0	0	;
	167	16.105	0.000	0.000	0.000	1.0087	37.30	1	37.300	0.000	0	0	0	0	0	0	0	0	0	0	0	;
	168	5.649	0.516	3.065	-3.065	1.0348	8.25	1	7.663	0.000	0	0	0	0	0	0	0	0	0	0	0	;
	168	0.000	0.000	9.310	-9.310	1.0348	25.07	0	23.274	0.000	0	0	0	0	0	0	0	0	0	0	0	;
	169	6.246	69.322	112.267	-112.267	1.0374	302.29	1	280.667	0.000	0	0	0	0	0	0	0	0	0	0	0	;
	169	0.000	0.000	9.375	-9.375	1.0374	25.24	0	23.439	0.000	0	0	0	0	0	0	0	0	0	0	0	;
	170	5.019	46.058	90.206	-90.206	1.0309	242.89	1	225.516	0.000	0	0	0	0	0	0	0	0	0	0	0	;
	170	1.727	0.000	0.000	0.000	1.0309	4.00	1	4.000	0.000	0	0	0	0	0	0	0	0	0	0	0	;
	171	0.458	0.000	0.000	0.000	1.0260	1.06	1	1.060	0.000	0	0	0	0	0	0	0	0	0	0	0	;
	171	0.000	0.000	16.660	-16.660	1.0260	44.86	0	41.649	0.000	0	0	0	0	0	0	0	0	0	0	0	;
	172	4.201	4.268	75.499	-75.499	1.0085	203.29	1	188.748	0.000	0	0	0	0	0	0	0	0	0	0	0	;
...
];

%% gen tags 
% Generation Technology Type:
%  CWS (Connection with Spain),
%  FOG (Fossil Gas),
%  FHC (Fossil Hard Coal),
%  HWR (Hydro Water Reservoir),
%  HPS (Hydro Pumped Storage),
%  HRP (Hydro Run-of-river and poundage),
%  SH1 (Small Hydro - P ≤ 10 MW),
%  SH3 (Small Hydro - 10 MW < P ≤ 30 MW),
%  PVP (Photovoltaic power plant),
%  WON (Wind onshore),
%  WOF (Wind offshore),
%  MAR (Marine),
%  OTH (Other thermal, such as geothermal, biomass, biogas, Municipal solid waste and CHP renewable and non-renewable)
%	genType
mpc.gen_tags = {
	'CWS';	'CWS';	'CWS';	'CWS';	'CWS';	'CWS';	'CWS';	'CWS';	'PVP';	'PVP';	'PVP';	'PVP';	'PVP';	'PVP';	'HWR';	'HWR';	'PVP';	'HRP';	'HRP';	'HRP';	'PVP';	'WON';	'WON';	'PVP';	'PVP';	'WON';	'SH3';	'HRP';	'HRP';	'OTH';	'WON';	'SH1';	'PVP';	'OTH';	'PVP';	'OTH';	'OTH';	'PVP';	'OTH';	'SH1';	'PVP';	'OTH';	'WON';	'SH1';	'SH3';	'PVP';	'HPS';	'HPS';	'OTH';	'WON';	'SH1';	'OTH';	'SH1';	'PVP';	'OTH';	'PVP';	'OTH';	'WON';	'SH1';	'SH3';	'OTH';	'WON';	'PVP';	'OTH';	'WON';	'SH1';	'PVP';	'WON';	'SH1';	'PVP';	'OTH';	'WON';	'PVP';	'OTH';	'PVP';	'OTH';	'WON';	'SH1';	'WON';	'OTH';	'WON';	'PVP';	'OTH';	'WON';	'SH1';	'SH3';	'PVP';	'OTH';	'WON';	'SH1';	'PVP';	'HWR';	'OTH';	'WON';	'SH1';	'OTH';	'OTH';	'WON';	'PVP';	'OTH';	'WON';	'PVP';	'OTH';	'WON';	'SH1';	'OTH';	'PVP';	'WON';	'OTH';	'PVP';	'OTH';	'WON';	'SH1';	'OTH';	'SH1';	'PVP';	'OTH';	'PVP';	'SH1';	'PVP';	'OTH';	'PVP';	'OTH';	'WON';	'SH1';	'PVP';	'OTH';	'WON';	'OTH';	'WON';	'PVP';	'OTH';	'PVP';	'OTH';	'PVP';	'HWR';	'HRP';	'HRP';	'HRP';	'HRP';	'HWR';	'HWR';	'OTH';	'WON';	'SH1';	'PVP';	'OTH';	'SH1';	'PVP';	'OTH';	'WON';	'SH1';	'SH3';	'PVP';	'WON';	'PVP';	'OTH';	'PVP';	'HWR';	'OTH';	'WON';	'SH1';	'WON';	'SH1';	'OTH';	'OTH';	'WON';	'PVP';	'OTH';	'WON';	'SH1';	'PVP';	'OTH';	'WON';	'SH1';	'WON';	'OTH';	'WON';	'SH1';	'WON';	'SH1';	'SH1';	'PVP';	'WON';	'SH1';	'OTH';	'WON';	'PVP';	'OTH';	'WON';	'SH1';	'OTH';	'PVP';	'WON';	'PVP';	'WON';	'SH1';	'SH1';	'PVP';	'WON';	'SH1';	'HWR';	'HWR';	'HWR';	'HWR';	'HWR';	'HWR';	'HWR';	'HWR';	'HWR';	'HWR';	'HPS';	'HPS';	'HWR';	'HWR';	'HWR';	'HPS';	'HRP';	'HRP';	'HRP';	'HPS';	'HPS';	'HWR';	'HWR';	'HWR';	'HRP';	'HRP';	'HRP';	'HRP';	'HRP';	'HRP';	'HRP';	'HRP';	'HRP';	'HRP';	'HPS';	'HPS';	'HPS';	'HRP';	'HRP';	'HRP';	'HPS';	'HPS';	'HRP';	'HRP';	'HRP';	'HRP';	'HRP';	'HRP';	'HRP';	'HRP';	'HRP';	'FOG';	'HRP';	'HPS';	'HPS';	'HPS';	'HPS';	'HPS';	'HPS';	'HPS';	'HPS';	'HPS';	'HWR';	'HWR';	'FOG';	'FOG';	'FOG';	'FOG';	'FOG';	'FOG';	'OTH';	'WON';	'WON';	'WON';	'WON';	'OTH';	'WON';	'WON';	'WON';	'WON';	'WON';	'WON';	'WON';	'HRP';	'HRP';	'HRP';	'WOF';	'MAR';	'PVP';	'HPS';	'HPS';	'PVP';	'PVP';	'PVP';	'PVP';	'HWR';	'HWR';	'HPS';	'HPS';	'HPS';	'HPS';	'HWR';	'HWR';	'WON';	'PVP';	'PVP';
};

%% branch data
% If the 'step_size', 'actTap', 'minTap', 'maxTap' and 'normalTap' fields are equal to "-1", it means that the transformer does not have tap changing capability
% If the length is equal to "0", it means that the correspondent branch represents a transformer
%	fbus	tbus	r	x	b	rateA (summer)	rateB (spring)	rateC (winter)	tap ratio	shift angle		status	angmin	angmax	step_size	actTap	minTap	maxTap	normalTap	length (km)
mpc.branch = [
	8	24	0.02945	0.09879	0.03302	91	123	130	0	0	0	-360	360	0	0	0	0	0	54.0	;
	8	176	0.02007	0.06867	0.02205	96	104	104	0	0	1	-360	360	0	0	0	0	0	36.6	;
	8	176	0.02014	0.06872	0.02229	96	104	104	0	0	1	-360	360	0	0	0	0	0	36.7	;
	9	14	0.00146	0.00787	0.00265	255	260	260	0	0	1	-360	360	0	0	0	0	0	4.3	;
	9	14	0.00146	0.00769	0.00260	255	260	260	0	0	1	-360	360	0	0	0	0	0	4.2	;
	9	14	0.00137	0.00737	0.00250	124	162	203	0	0	1	-360	360	0	0	0	0	0	4.1	;
	10	19	0.02098	0.11168	0.03801	218	248	260	0	0	1	-360	360	0	0	0	0	0	61.3	;
	10	22	0.02445	0.08166	0.02747	164	186	206	0	0	1	-360	360	0	0	0	0	0	44.5	;
	10	26	0.00777	0.04761	0.01640	260	260	260	0	0	1	-360	360	0	0	0	0	0	26.0	;
	11	14	0.02030	0.07019	0.02214	171	186	206	0	0	1	-360	360	0	0	0	0	0	36.7	;
	11	14	0.02010	0.06862	0.02204	191	204	222	0	0	1	-360	360	0	0	0	0	0	36.5	;
	12	22	0.02823	0.10553	0.04049	189	204	222	0	0	1	-360	360	0	0	0	0	0	61.6	;
	12	23	0.01953	0.08771	0.03214	195	204	222	0	0	1	-360	360	0	0	0	0	0	49.8	;
	12	29	0.01515	0.04945	0.01745	195	204	222	0	0	1	-360	360	0	0	0	0	0	27.9	;
	12	29	0.01515	0.04945	0.01745	195	204	222	0	0	1	-360	360	0	0	0	0	0	27.9	;
	12	29	0.00551	0.05765	0.03609	260	260	260	0	0	1	-360	360	0	0	0	0	0	42.8	;
	12	34	0.02334	0.12013	0.04435	255	260	260	0	0	1	-360	360	0	0	0	0	0	68.7	;
	13	14	0.00788	0.04049	0.01506	255	260	260	0	0	1	-360	360	0	0	0	0	0	23.1	;
	13	14	0.00788	0.04049	0.01506	255	260	260	0	0	1	-360	360	0	0	0	0	0	23.1	;
	13	20	0.00745	0.02441	0.00855	195	204	221	0	0	1	-360	360	0	0	0	0	0	13.6	;
	13	20	0.00745	0.02441	0.00855	195	204	221	0	0	1	-360	360	0	0	0	0	0	13.6	;
	13	20	0.00745	0.02441	0.00855	195	204	221	0	0	1	-360	360	0	0	0	0	0	13.6	;
	13	20	0.00745	0.02441	0.00855	195	204	221	0	0	1	-360	360	0	0	0	0	0	13.6	;
	13	180	0.00411	0.02110	0.00788	255	260	260	0	0	1	-360	360	0	0	0	0	0	12.0	;
	13	246	0.00422	0.02163	0.00811	260	260	260	0	0	1	-360	360	0	0	0	0	0	12.2	;
	14	180	0.00411	0.02110	0.00788	255	260	260	0	0	1	-360	360	0	0	0	0	0	12.0	;
	14	185	0.01114	0.03788	0.01266	191	204	222	0	0	1	-360	360	0	0	0	0	0	20.5	;
	14	186	0.02662	0.09054	0.02905	185	204	222	0	0	1	-360	360	0	0	0	0	0	48.4	;
	14	246	0.00408	0.02092	0.00779	255	260	260	0	0	1	-360	360	0	0	0	0	0	12.0	;
	15	22	0.02154	0.10932	0.04126	224	248	260	0	0	1	-360	360	0	0	0	0	0	63.4	;
	15	22	0.02154	0.10932	0.04126	224	248	260	0	0	1	-360	360	0	0	0	0	0	63.4	;
	15	26	0.00974	0.05968	0.02055	260	260	260	0	0	1	-360	360	0	0	0	0	0	32.6	;
	15	27	0.02701	0.09576	0.03037	191	204	222	0	0	1	-360	360	0	0	0	0	0	50.5	;
	15	28	0.03335	0.10915	0.03827	195	204	222	0	0	1	-360	360	0	0	0	0	0	60.7	;
	15	29	0.05251	0.17172	0.06032	195	204	222	0	0	1	-360	360	0	0	0	0	0	95.6	;
	15	250	0.00184	0.00954	0.00342	130	130	130	0	0	1	-360	360	0	0	0	0	0	5.4	;
	15	250	0.00187	0.00974	0.00349	130	130	130	0	0	1	-360	360	0	0	0	0	0	5.5	;
	15	255	0.00282	0.01157	0.02727	260	273	296	0	0	1	-360	360	0	0	0	0	0	5.9	;
	16	178	0.00839	0.03586	0.01167	104	123	130	0	0	1	-360	360	0	0	0	0	0	19.0	;
	17	21	0.01658	0.06789	0.02323	195	204	222	0	0	1	-360	360	0	0	0	0	0	37.9	;
	17	21	0.00900	0.05720	0.02480	260	273	296	0	0	1	-360	360	0	0	0	0	0	35.0	;
	17	25	0.01638	0.06453	0.02191	104	123	153	0	0	1	-360	360	0	0	0	0	0	35.2	;
	17	184	0.01106	0.03018	0.01032	91	108	134	0	0	1	-360	360	0	0	0	0	0	16.6	;
	18	287	0.00156	0.01068	0.00498	260	273	296	0	0	0	-360	360	0	0	0	0	0	6.8	;
	18	288	0.00151	0.01038	0.00484	260	273	296	0	0	1	-360	360	0	0	0	0	0	6.6	;
	18	306	0.00548	0.02813	0.01051	255	260	260	0	0	1	-360	360	0	0	0	0	0	16.0	;
	18	307	0.00480	0.02461	0.00920	255	260	260	0	0	1	-360	360	0	0	0	0	0	14.0	;
	19	186	0.02662	0.09054	0.02905	185	204	222	0	0	1	-360	360	0	0	0	0	0	48.4	;
	21	30	0.01441	0.06067	0.02080	195	204	222	0	0	1	-360	360	0	0	0	0	0	33.3	;
	21	32	0.00720	0.04579	0.01985	260	273	296	0	0	1	-360	360	0	0	0	0	0	28.0	;
	21	32	0.00720	0.04579	0.01985	260	273	296	0	0	1	-360	360	0	0	0	0	0	28.0	;
	21	251	0.00610	0.04180	0.01950	260	273	296	0	0	1	-360	360	0	0	0	0	0	26.5	;
	22	34	0.01325	0.06238	0.06238	337	372	411	0	0	1	-360	360	0	0	0	0	0	57.9	;
	22	245	0.01212	0.04116	0.01324	81	123	130	0	0	1	-360	360	0	0	0	0	0	22.0	;
	23	34	0.01185	0.06135	0.02247	255	260	260	0	0	1	-360	360	0	0	0	0	0	35.1	;
	23	34	0.01185	0.06135	0.02247	255	260	260	0	0	1	-360	360	0	0	0	0	0	35.1	;
	23	34	0.01580	0.07475	0.02730	255	260	260	0	0	1	-360	360	0	0	0	0	0	42.7	;
	24	31	0.00310	0.03271	0.07540	520	520	520	0	0	1	-360	360	0	0	0	0	0	46.5	;
	24	181	0.00436	0.01464	0.00484	189	195	195	0	0	1	-360	360	0	0	0	0	0	7.8	;
	24	248	0.00715	0.03705	0.01350	227	248	381	0	0	1	-360	360	0	0	0	0	0	20.8	;
	24	248	0.00715	0.03705	0.01350	227	248	381	0	0	1	-360	360	0	0	0	0	0	20.8	;
	24	252	0.01240	0.06509	0.02314	253	260	260	0	0	1	-360	360	0	0	0	0	0	36.3	;
	25	32	0.01065	0.03476	0.01219	195	204	222	0	0	1	-360	360	0	0	0	0	0	19.3	;
	25	32	0.01069	0.03488	0.01223	195	204	222	0	0	1	-360	360	0	0	0	0	0	19.3	;
	25	32	0.00504	0.02690	0.01516	233	248	260	0	0	1	-360	360	0	0	0	0	0	18.0	;
	25	307	0.00582	0.01853	0.00675	104	123	153	0	0	1	-360	360	0	0	0	0	0	10.6	;
	25	307	0.00581	0.01846	0.00677	104	123	153	0	0	1	-360	360	0	0	0	0	0	10.6	;
	27	185	0.01114	0.03788	0.01266	191	204	222	0	0	1	-360	360	0	0	0	0	0	20.5	;
	28	29	0.01921	0.06275	0.02210	195	204	222	0	0	1	-360	360	0	0	0	0	0	35.2	;
	30	32	0.00729	0.02383	0.00834	195	204	222	0	0	1	-360	360	0	0	0	0	0	13.2	;
	30	32	0.00729	0.02383	0.00834	195	204	222	0	0	1	-360	360	0	0	0	0	0	13.2	;
	30	32	0.00732	0.02829	0.00946	195	204	222	0	0	1	-360	360	0	0	0	0	0	15.4	;
	30	33	0.00260	0.02724	0.01640	520	520	520	0	0	1	-360	360	0	0	0	0	0	19.8	;
	30	174	0.00358	0.02407	0.00900	260	260	260	0	0	1	-360	360	0	0	0	0	0	13.8	;
	30	179	0.00403	0.01370	0.00440	104	123	153	0	0	1	-360	360	0	0	0	0	0	7.3	;
	30	184	0.01106	0.03018	0.01032	91	108	134	0	0	1	-360	360	0	0	0	0	0	16.6	;
	31	248	0.00715	0.03705	0.01350	227	248	381	0	0	1	-360	360	0	0	0	0	0	20.8	;
	31	248	0.00715	0.03705	0.01350	227	248	381	0	0	1	-360	360	0	0	0	0	0	20.8	;
	31	253	0.01091	0.05722	0.02036	253	260	260	0	0	1	-360	360	0	0	0	0	0	31.9	;
	32	33	0.00695	0.04818	0.02461	504	520	520	0	0	1	-360	360	0	0	0	0	0	32.2	;
	32	254	0.01869	0.10188	0.03320	260	273	296	0	0	1	-360	360	0	0	0	0	0	53.5	;
	32	254	0.01869	0.10188	0.03320	260	273	296	0	0	1	-360	360	0	0	0	0	0	53.5	;
	32	306	0.01351	0.04810	0.01561	195	204	222	0	0	1	-360	360	0	0	0	0	0	25.7	;
	33	173	0.00082	0.00526	0.00200	306	321	348	0	0	1	-360	360	0	0	0	0	0	3.0	;
	33	177	0.00830	0.02880	0.00938	104	104	104	0	0	1	-360	360	0	0	0	0	0	15.3	;
	33	182	0.00023	0.00161	0.00056	306	321	348	0	0	1	-360	360	0	0	0	0	0	0.9	;
	33	184	0.00504	0.03382	0.01267	274	291	322	0	0	1	-360	360	0	0	0	0	0	19.3	;
	36	64	0.00418	0.02292	0.13770	999	1092	1206	0	0	1	-360	360	0	0	0	0	0	52.3	;
	36	71	0.00396	0.02133	0.13035	999	1092	1206	0	0	1	-360	360	0	0	0	0	0	48.9	;
	36	187	0.00011	0.00060	0.00094	191	191	191	0	0	1	-360	360	0	0	0	0	0	0.7	;
	36	188	0.00018	0.00061	0.00092	191	191	191	0	0	1	-360	360	0	0	0	0	0	0.7	;
	36	189	0.00018	0.00061	0.00092	191	191	191	0	0	1	-360	360	0	0	0	0	0	0.8	;
	37	59	0.00168	0.00382	0.35975	493	493	493	0	0	1	-360	360	0	0	0	0	0	10.4	;
	37	213	0.00017	0.00044	0.04927	322	322	322	0	0	1	-360	360	0	0	0	0	0	1.8	;
	37	214	0.00017	0.00044	0.04927	322	322	322	0	0	1	-360	360	0	0	0	0	0	1.8	;
	37	215	0.00017	0.00044	0.04927	322	322	322	0	0	1	-360	360	0	0	0	0	0	1.8	;
	37	216	0.00017	0.00044	0.04927	322	322	322	0	0	1	-360	360	0	0	0	0	0	1.8	;
	38	208	0.00048	0.00109	0.10268	493	493	493	0	0	1	-360	360	0	0	0	0	0	3.2	;
	38	209	0.00048	0.00108	0.10056	493	493	493	0	0	1	-360	360	0	0	0	0	0	3.2	;
	39	45	0.01696	0.09185	0.14133	381	381	381	0	0	1	-360	360	0	0	0	0	0	106.8	;
	39	69	0.00691	0.03721	0.05799	513	546	571.5	0	0	1	-360	360	0	0	0	0	0	43.0	;
	39	69	0.00687	0.03725	0.05671	381	381	381	0	0	1	-360	360	0	0	0	0	0	43.0	;
	39	71	0.00183	0.01006	0.05957	1026	1090.5	1143	0	0	1	-360	360	0	0	0	0	0	22.2	;
	39	78	0.00658	0.03647	0.05332	382	400	435	0	0	1	-360	360	0	0	0	0	0	41.1	;
	39	195	0.00484	0.02634	0.04046	199	237	297	0	0	1	-360	360	0	0	0	0	0	30.4	;
	39	199	0.00873	0.04861	0.07070	381	381	381	0	0	1	-360	360	0	0	0	0	0	54.7	;
	39	258	0.00326	0.01810	0.02629	382	400	435	0	0	1	-360	360	0	0	0	0	0	20.3	;
	39	258	0.00240	0.01307	0.02007	199	237	297	0	0	1	-360	360	0	0	0	0	0	15.1	;
	40	51	0.00874	0.04843	0.07272	374	400	435	0	0	1	-360	360	0	0	0	0	0	54.7	;
	40	65	0.00985	0.05518	0.07982	499.5	546	571.5	0	0	1	-360	360	0	0	0	0	0	61.9	;
	40	65	0.00944	0.05439	0.07975	499.5	546	571.5	0	0	1	-360	360	0	0	0	0	0	61.8	;
	40	196	0.00017	0.00091	0.00135	182	237	297	0	0	1	-360	360	0	0	0	0	0	1.0	;
	40	198	0.00214	0.01565	0.02877	439	471	511	0	0	1	-360	360	0	0	0	0	0	19.6	;
	40	5	0.00630	0.03584	0.05497	374	400	435	0	0	1	-360	360	0	0	0	0	0	41.1	;
	40	5	0.00636	0.03628	0.05564	374	400	435	0	0	1	-360	360	0	0	0	0	0	41.4	;
	40	6	0.00481	0.02670	0.03939	360	390	430	0	0	1	-360	360	0	0	0	0	0	30.2	;
	41	53	0.00145	0.00845	0.01465	381	381	381	0	0	1	-360	360	0	0	0	0	0	10.4	;
	41	53	0.00078	0.00546	0.00902	381	381	381	0	0	1	-360	360	0	0	0	0	0	6.5	;
	41	57	0.00318	0.01660	0.02798	381	381	381	0	0	1	-360	360	0	0	0	0	0	20.2	;
	41	68	0.00084	0.00572	0.00995	401	426	472	0	0	1	-360	360	0	0	0	0	0	7.0	;
	41	68	0.00170	0.00386	0.36133	493	493	493	0	0	1	-360	360	0	0	0	0	0	10.7	;
	41	210	0.00056	0.00586	0.01715	762	762	762	0	0	1	-360	360	0	0	0	0	0	9.4	;
	41	211	0.00221	0.02313	0.06702	762	762	762	0	0	1	-360	360	0	0	0	0	0	37.0	;
	41	308	0.00006	0.00025	0.01708	240	240	240	0	0	1	-360	360	0	0	0	0	0	0.7	;
	42	78	0.00448	0.02493	0.03617	382	400	435	0	0	1	-360	360	0	0	0	0	0	28.0	;
	42	78	0.00448	0.02494	0.03619	382	400	435	0	0	1	-360	360	0	0	0	0	0	28.0	;
	42	257	0.00276	0.01543	0.02230	381	381	381	0	0	1	-360	360	0	0	0	0	0	17.3	;
	42	257	0.00274	0.01524	0.02237	381	381	381	0	0	1	-360	360	0	0	0	0	0	17.3	;
	43	58	0.00210	0.00476	0.44633	493	493	493	0	0	1	-360	360	0	0	0	0	0	12.6	;
	43	76	0.00113	0.00321	0.34652	446	446	446	0	0	1	-360	360	0	0	0	0	0	11.1	;
	43	76	0.00113	0.00320	0.34511	446	446	446	0	0	1	-360	360	0	0	0	0	0	11.1	;
	43	204	0.00146	0.00771	0.01235	381	381	381	0	0	1	-360	360	0	0	0	0	0	9.2	;
	43	205	0.00063	0.00332	0.00533	381	381	381	0	0	1	-360	360	0	0	0	0	0	3.9	;
	43	219	0.00083	0.00445	0.00676	342	364	381	0	0	1	-360	360	0	0	0	0	0	5.4	;
	44	48	0.00396	0.02139	0.03311	342	364	381	0	0	1	-360	360	0	0	0	0	0	24.9	;
	44	66	0.00779	0.04029	0.06834	381	381	381	0	0	1	-360	360	0	0	0	0	0	50.9	;
	44	66	0.00311	0.03080	0.09461	897	941	1021	0	0	1	-360	360	0	0	0	0	0	50.7	;
	44	193	0.00504	0.02686	0.04234	381	381	381	0	0	1	-360	360	0	0	0	0	0	31.7	;
	45	46	0.00650	0.03510	0.05270	382	400	435	0	0	1	-360	360	0	0	0	0	0	40.2	;
	45	46	0.00608	0.03139	0.05420	382	400	435	0	0	1	-360	360	0	0	0	0	0	38.8	;
	45	46	0.00614	0.03155	0.05417	382	400	435	0	0	1	-360	360	0	0	0	0	0	38.8	;
	45	74	0.00586	0.03263	0.04775	381	381	381	0	0	1	-360	360	0	0	0	0	0	36.7	;
	45	74	0.00586	0.03263	0.04775	381	381	381	0	0	1	-360	360	0	0	0	0	0	36.7	;
	45	199	0.00873	0.04861	0.07070	381	381	381	0	0	1	-360	360	0	0	0	0	0	54.7	;
	46	50	0.00409	0.02221	0.03328	381	400	435	0	0	1	-360	360	0	0	0	0	0	25.4	;
	46	64	0.00275	0.01510	0.09065	666	728	804	0	0	1	-360	360	0	0	0	0	0	34.8	;
	46	214	0.00477	0.02559	0.04001	381	381	381	0	0	1	-360	360	0	0	0	0	0	30.0	;
	46	216	0.00465	0.02524	0.03797	382	400	435	0	0	1	-360	360	0	0	0	0	0	28.9	;
	46	222	0.00006	0.00021	0.02068	438	438	438	0	0	1	-360	360	0	0	0	0	0	0.8	;
	46	260	0.00913	0.04888	0.07531	342	364	381	0	0	1	-360	360	0	0	0	0	0	56.8	;
	47	57	0.01028	0.05388	0.08954	381	381	381	0	0	1	-360	360	0	0	0	0	0	65.0	;
	47	61	0.00034	0.00182	0.00285	199	237	297	0	0	1	-360	360	0	0	0	0	0	2.1	;
	47	66	0.00525	0.02886	0.04430	381	381	381	0	0	1	-360	360	0	0	0	0	0	33.4	;
	47	67	0.00789	0.04153	0.06856	381	381	381	0	0	1	-360	360	0	0	0	0	0	50.0	;
	47	75	0.00724	0.03931	0.05957	382	400	435	0	0	1	-360	360	0	0	0	0	0	45.0	;
	47	211	0.00221	0.02313	0.06702	762	762	762	0	0	1	-360	360	0	0	0	0	0	37.0	;
	47	224	0.00039	0.00426	0.01070	750	762	762	0	0	1	-360	360	0	0	0	0	0	6.4	;
	48	66	0.01101	0.05739	0.09535	381	381	381	0	0	1	-360	360	0	0	0	0	0	69.5	;
	48	69	0.00352	0.01887	0.02971	513	546	571.5	0	0	1	-360	360	0	0	0	0	0	22.6	;
	48	69	0.00350	0.01889	0.02900	381	381	381	0	0	1	-360	360	0	0	0	0	0	22.0	;
	49	57	0.00169	0.00872	0.05960	381	381	381	0	0	1	-360	360	0	0	0	0	0	21.4	;
	49	193	0.00037	0.00490	0.01932	1200	1200	1200	0	0	1	-360	360	0	0	0	0	0	9.2	;
	49	221	0.00055	0.00728	0.02882	762	762	762	0	0	1	-360	360	0	0	0	0	0	13.7	;
	50	55	0.00311	0.01663	0.02615	381	381	381	0	0	1	-360	360	0	0	0	0	0	19.5	;
	50	55	0.00252	0.01377	0.02062	381	381	381	0	0	1	-360	360	0	0	0	0	0	15.8	;
	50	56	0.00162	0.01419	0.06090	762	762	762	0	0	1	-360	360	0	0	0	0	0	27.0	;
	50	204	0.00146	0.00771	0.01235	381	381	381	0	0	1	-360	360	0	0	0	0	0	9.2	;
	50	213	0.00210	0.01087	0.01848	381	381	381	0	0	1	-360	360	0	0	0	0	0	13.3	;
	50	215	0.00316	0.01718	0.02582	382	400	435	0	0	1	-360	360	0	0	0	0	0	19.7	;
	50	217	0.00182	0.00952	0.01558	382	400	435	0	0	1	-360	360	0	0	0	0	0	11.3	;
	51	66	0.00711	0.03753	0.06399	382	400	435	0	0	1	-360	360	0	0	0	0	0	45.9	;
	51	66	0.00712	0.03759	0.06408	382	400	435	0	0	1	-360	360	0	0	0	0	0	46.0	;
	51	194	0.00465	0.02422	0.04046	382	400	435	0	0	1	-360	360	0	0	0	0	0	29.4	;
	51	194	0.00466	0.02427	0.04055	382	400	435	0	0	1	-360	360	0	0	0	0	0	29.5	;
	51	224	0.00039	0.00426	0.01070	750	762	762	0	0	0	-360	360	0	0	0	0	0	6.4	;
	52	199	0.00057	0.00311	0.00469	191	191	191	0	0	1	-360	360	0	0	0	0	0	3.6	;
	53	68	0.00078	0.00545	0.00900	401	426	472	0	0	1	-360	360	0	0	0	0	0	6.6	;
	53	190	0.00222	0.01196	0.02035	381	381	381	0	0	1	-360	360	0	0	0	0	0	14.7	;
	54	63	0.00412	0.02158	0.03520	374	381	381	0	0	1	-360	360	0	0	0	0	0	25.7	;
	54	77	0.00631	0.03514	0.05182	374	400	435	0	0	1	-360	360	0	0	0	0	0	39.5	;
	54	77	0.00636	0.03898	0.06249	374	400	435	0	0	1	-360	360	0	0	0	0	0	46.1	;
	54	191	0.00237	0.01312	0.01925	182	229	229	0	0	1	-360	360	0	0	0	0	0	14.9	;
	54	191	0.00189	0.01296	0.02104	229	229	229	0	0	1	-360	360	0	0	0	0	0	15.5	;
	54	192	0.00309	0.01722	0.02516	374	400	435	0	0	1	-360	360	0	0	0	0	0	19.4	;
	54	200	0.00006	0.00035	0.00053	182	237	297	0	0	1	-360	360	0	0	0	0	0	0.4	;
	54	201	0.00006	0.00035	0.00053	182	237	297	0	0	1	-360	360	0	0	0	0	0	0.4	;
	54	202	0.00006	0.00035	0.00053	182	237	297	0	0	1	-360	360	0	0	0	0	0	0.4	;
	54	203	0.00005	0.00034	0.00053	182	237	297	0	0	1	-360	360	0	0	0	0	0	0.2	;
	55	58	0.00049	0.00177	0.22418	364	364	364	0	0	1	-360	360	0	0	0	0	0	7.8	;
	55	204	0.00041	0.00224	0.00340	381	381	381	0	0	1	-360	360	0	0	0	0	0	2.6	;
	55	205	0.00063	0.00332	0.00533	381	381	381	0	0	1	-360	360	0	0	0	0	0	3.9	;
	56	74	0.00719	0.04008	0.05857	382	400	435	0	0	1	-360	360	0	0	0	0	0	46.0	;
	56	205	0.00144	0.00779	0.01170	382	400	435	0	0	1	-360	360	0	0	0	0	0	8.9	;
	57	60	0.00351	0.01764	0.02842	381	381	381	0	0	1	-360	360	0	0	0	0	0	20.8	;
	57	67	0.00249	0.01299	0.02177	381	381	381	0	0	1	-360	360	0	0	0	0	0	15.7	;
	57	190	0.00222	0.01196	0.02035	381	381	381	0	0	1	-360	360	0	0	0	0	0	14.7	;
	57	210	0.00056	0.00586	0.01715	762	762	762	0	0	1	-360	360	0	0	0	0	0	9.4	;
	57	220	0.00042	0.00563	0.02152	1200	1200	1200	0	0	1	-360	360	0	0	0	0	0	10.4	;
	57	221	0.00055	0.00728	0.02882	762	762	762	0	0	1	-360	360	0	0	0	0	0	13.7	;
	58	219	0.00038	0.00138	0.17477	364	364	364	0	0	1	-360	360	0	0	0	0	0	6.2	;
...
];
